2351
  -OEChem-10051719323D

 61 63  0     1  0  0  0  0  0999 V2000
   -2.4510   -1.0220    0.5743 O   0  0  0  0  0  0  0  0  0  0  0  0
   -2.4690    1.2449   -1.1449 N   0  0  0  0  0  0  0  0  0  0  0  0
    0.8191    0.2208    0.2198 N   0  0  3  0  0  0  0  0  0  0  0  0
   -1.4525    1.0662   -0.1188 C   0  0  2  0  0  0  0  0  0  0  0  0
   -3.6623    1.9212   -0.6370 C   0  0  0  0  0  0  0  0  0  0  0  0
   -2.0033    2.0779   -2.2531 C   0  0  0  0  0  0  0  0  0  0  0  0
   -4.3840    2.3413   -1.9089 C   0  0  0  0  0  0  0  0  0  0  0  0
   -3.2942    2.4409   -2.9719 C   0  0  0  0  0  0  0  0  0  0  0  0
   -0.2371    0.3824   -0.7529 C   0  0  0  0  0  0  0  0  0  0  0  0
   -2.0316    0.2541    1.0455 C   0  0  0  0  0  0  0  0  0  0  0  0
    1.2631   -1.1337    0.5508 C   0  0  0  0  0  0  0  0  0  0  0  0
    1.4060    1.3261    0.8504 C   0  0  0  0  0  0  0  0  0  0  0  0
   -3.0421   -1.7907    1.6122 C   0  0  0  0  0  0  0  0  0  0  0  0
   -3.4639   -3.1597    1.0718 C   0  0  0  0  0  0  0  0  0  0  0  0
    2.4150   -1.5399   -0.3259 C   0  0  0  0  0  0  0  0  0  0  0  0
    1.3371    1.4558    2.2375 C   0  0  0  0  0  0  0  0  0  0  0  0
    2.0588    2.2970    0.0907 C   0  0  0  0  0  0  0  0  0  0  0  0
   -2.2647   -3.9358    0.5229 C   0  0  0  0  0  0  0  0  0  0  0  0
   -4.1665   -3.9686    2.1599 C   0  0  0  0  0  0  0  0  0  0  0  0
    2.1742   -2.1797   -1.5418 C   0  0  0  0  0  0  0  0  0  0  0  0
    3.7245   -1.2766    0.0763 C   0  0  0  0  0  0  0  0  0  0  0  0
    1.9207    2.5564    2.8650 C   0  0  0  0  0  0  0  0  0  0  0  0
    2.6424    3.3975    0.7183 C   0  0  0  0  0  0  0  0  0  0  0  0
    2.5734    3.5271    2.1055 C   0  0  0  0  0  0  0  0  0  0  0  0
    3.2428   -2.5565   -2.3553 C   0  0  0  0  0  0  0  0  0  0  0  0
    4.7931   -1.6533   -0.7374 C   0  0  0  0  0  0  0  0  0  0  0  0
    4.5522   -2.2932   -1.9532 C   0  0  0  0  0  0  0  0  0  0  0  0
   -1.1556    2.0461    0.2796 H   0  0  0  0  0  0  0  0  0  0  0  0
   -4.3099    1.2682   -0.0437 H   0  0  0  0  0  0  0  0  0  0  0  0
   -3.4117    2.8101   -0.0439 H   0  0  0  0  0  0  0  0  0  0  0  0
   -1.5044    2.9907   -1.9027 H   0  0  0  0  0  0  0  0  0  0  0  0
   -1.3394    1.5512   -2.9452 H   0  0  0  0  0  0  0  0  0  0  0  0
   -4.9089    3.2929   -1.7767 H   0  0  0  0  0  0  0  0  0  0  0  0
   -5.1231    1.5879   -2.2060 H   0  0  0  0  0  0  0  0  0  0  0  0
   -3.5027    1.7328   -3.7827 H   0  0  0  0  0  0  0  0  0  0  0  0
   -3.2432    3.4441   -3.4071 H   0  0  0  0  0  0  0  0  0  0  0  0
    0.1730    0.9596   -1.5879 H   0  0  0  0  0  0  0  0  0  0  0  0
   -0.5293   -0.5852   -1.1815 H   0  0  0  0  0  0  0  0  0  0  0  0
   -1.2767    0.1067    1.8245 H   0  0  0  0  0  0  0  0  0  0  0  0
   -2.8669    0.7736    1.5291 H   0  0  0  0  0  0  0  0  0  0  0  0
    0.4383   -1.8486    0.4318 H   0  0  0  0  0  0  0  0  0  0  0  0
    1.5511   -1.2201    1.6064 H   0  0  0  0  0  0  0  0  0  0  0  0
   -3.9211   -1.2597    1.9974 H   0  0  0  0  0  0  0  0  0  0  0  0
   -2.3239   -1.9128    2.4326 H   0  0  0  0  0  0  0  0  0  0  0  0
   -4.1628   -3.0054    0.2399 H   0  0  0  0  0  0  0  0  0  0  0  0
    0.8304    0.7129    2.8476 H   0  0  0  0  0  0  0  0  0  0  0  0
    2.1299    2.2082   -0.9901 H   0  0  0  0  0  0  0  0  0  0  0  0
   -1.5079   -4.0968    1.2982 H   0  0  0  0  0  0  0  0  0  0  0  0
   -1.7913   -3.3989   -0.3058 H   0  0  0  0  0  0  0  0  0  0  0  0
   -2.5766   -4.9156    0.1458 H   0  0  0  0  0  0  0  0  0  0  0  0
   -3.5009   -4.1559    3.0095 H   0  0  0  0  0  0  0  0  0  0  0  0
   -4.4999   -4.9367    1.7711 H   0  0  0  0  0  0  0  0  0  0  0  0
   -5.0488   -3.4367    2.5314 H   0  0  0  0  0  0  0  0  0  0  0  0
    1.1594   -2.3924   -1.8669 H   0  0  0  0  0  0  0  0  0  0  0  0
    3.9261   -0.7792    1.0213 H   0  0  0  0  0  0  0  0  0  0  0  0
    1.8663    2.6579    3.9450 H   0  0  0  0  0  0  0  0  0  0  0  0
    3.1525    4.1525    0.1272 H   0  0  0  0  0  0  0  0  0  0  0  0
    3.0282    4.3839    2.5941 H   0  0  0  0  0  0  0  0  0  0  0  0
    3.0553   -3.0550   -3.3019 H   0  0  0  0  0  0  0  0  0  0  0  0
    5.8126   -1.4483   -0.4245 H   0  0  0  0  0  0  0  0  0  0  0  0
    5.3841   -2.5865   -2.5867 H   0  0  0  0  0  0  0  0  0  0  0  0
  1 10  1  0  0  0  0
  1 13  1  0  0  0  0
  2  4  1  0  0  0  0
  2  5  1  0  0  0  0
  2  6  1  0  0  0  0
  3  9  1  0  0  0  0
  3 11  1  0  0  0  0
  3 12  1  0  0  0  0
  4  9  1  0  0  0  0
  4 10  1  0  0  0  0
  4 28  1  0  0  0  0
  5  7  1  0  0  0  0
  5 29  1  0  0  0  0
  5 30  1  0  0  0  0
  6  8  1  0  0  0  0
  6 31  1  0  0  0  0
  6 32  1  0  0  0  0
  7  8  1  0  0  0  0
  7 33  1  0  0  0  0
  7 34  1  0  0  0  0
  8 35  1  0  0  0  0
  8 36  1  0  0  0  0
  9 37  1  0  0  0  0
  9 38  1  0  0  0  0
 10 39  1  0  0  0  0
 10 40  1  0  0  0  0
 11 15  1  0  0  0  0
 11 41  1  0  0  0  0
 11 42  1  0  0  0  0
 12 16  2  0  0  0  0
 12 17  1  0  0  0  0
 13 14  1  0  0  0  0
 13 43  1  0  0  0  0
 13 44  1  0  0  0  0
 14 18  1  0  0  0  0
 14 19  1  0  0  0  0
 14 45  1  0  0  0  0
 15 20  2  0  0  0  0
 15 21  1  0  0  0  0
 16 22  1  0  0  0  0
 16 46  1  0  0  0  0
 17 23  2  0  0  0  0
 17 47  1  0  0  0  0
 18 48  1  0  0  0  0
 18 49  1  0  0  0  0
 18 50  1  0  0  0  0
 19 51  1  0  0  0  0
 19 52  1  0  0  0  0
 19 53  1  0  0  0  0
 20 25  1  0  0  0  0
 20 54  1  0  0  0  0
 21 26  2  0  0  0  0
 21 55  1  0  0  0  0
 22 24  2  0  0  0  0
 22 56  1  0  0  0  0
 23 24  1  0  0  0  0
 23 57  1  0  0  0  0
 24 58  1  0  0  0  0
 25 27  2  0  0  0  0
 25 59  1  0  0  0  0
 26 27  1  0  0  0  0
 26 60  1  0  0  0  0
 27 61  1  0  0  0  0
M  END
> <DATABASE_ID>
DB01244

> <DATABASE_NAME>
drugbank

> <ORIGINAL_SOURCE>
PUBCHEM

> <ORIGINAL_SOURCE_URL>
https://pubchem.ncbi.nlm.nih.gov/rest/pug/compound/inchikey/UIEATEWHFDRYRU-UHFFFAOYSA-N/SDF?record_type=3d

> <SMILES>
CC(C)COCC(CN(CC1=CC=CC=C1)C1=CC=CC=C1)N1CCCC1

> <INCHI_IDENTIFIER>
InChI=1S/C24H34N2O/c1-21(2)19-27-20-24(25-15-9-10-16-25)18-26(23-13-7-4-8-14-23)17-22-11-5-3-6-12-22/h3-8,11-14,21,24H,9-10,15-20H2,1-2H3

> <INCHI_KEY>
UIEATEWHFDRYRU-UHFFFAOYSA-N

> <FORMULA>
C24H34N2O

> <MOLECULAR_WEIGHT>
366.5396

> <EXACT_MASS>
366.26711372

> <JCHEM_ACCEPTOR_COUNT>
3

> <JCHEM_ATOM_COUNT>
61

> <JCHEM_AVERAGE_NEUTRAL_MICROSPECIES_CHARGE>
0.9930749001682394

> <JCHEM_AVERAGE_POLARIZABILITY>
43.49590825805476

> <JCHEM_BIOAVAILABILITY>
1

> <JCHEM_DONOR_COUNT>
0

> <JCHEM_FORMAL_CHARGE>
0

> <JCHEM_GHOSE_FILTER>
1

> <JCHEM_IUPAC>
N-benzyl-N-[3-(2-methylpropoxy)-2-(pyrrolidin-1-yl)propyl]aniline

> <ALOGPS_LOGP>
5.33

> <JCHEM_LOGP>
5.487299518666666

> <ALOGPS_LOGS>
-4.75

> <JCHEM_MDDR_LIKE_RULE>
1

> <JCHEM_NEUTRAL_CHARGE>
1

> <JCHEM_NUMBER_OF_RINGS>
3

> <JCHEM_PHYSIOLOGICAL_CHARGE>
1

> <JCHEM_PKA_STRONGEST_BASIC>
9.156553004146941

> <JCHEM_POLAR_SURFACE_AREA>
15.71

> <JCHEM_REFRACTIVITY>
115.11720000000004

> <JCHEM_ROTATABLE_BOND_COUNT>
10

> <JCHEM_RULE_OF_FIVE>
0

> <ALOGPS_SOLUBILITY>
6.55e-03 g/l

> <JCHEM_TRADITIONAL_IUPAC>
biotin

> <JCHEM_VEBER_RULE>
1

$$$$
