34328
  -OEChem-10051719363D

 60 63  0     0  0  0  0  0  0999 V2000
   -4.6555   -2.3429    0.0455 O   0  0  0  0  0  0  0  0  0  0  0  0
   -3.0343   -1.9620   -1.5108 O   0  0  0  0  0  0  0  0  0  0  0  0
   -0.8071    0.0274    0.9866 N   0  0  0  0  0  0  0  0  0  0  0  0
    3.6174    0.2864    3.2136 N   0  0  0  0  0  0  0  0  0  0  0  0
   -3.6340   -0.2116    0.0689 C   0  0  0  0  0  0  0  0  0  0  0  0
   -3.1755   -0.4056    1.5371 C   0  0  0  0  0  0  0  0  0  0  0  0
   -2.5583    0.6333   -0.6607 C   0  0  0  0  0  0  0  0  0  0  0  0
   -1.7270   -0.8914    1.6636 C   0  0  0  0  0  0  0  0  0  0  0  0
   -1.1280    0.1256   -0.4400 C   0  0  0  0  0  0  0  0  0  0  0  0
    0.5781   -0.4044    1.1721 C   0  0  0  0  0  0  0  0  0  0  0  0
   -5.0184    0.4426   -0.0752 C   0  0  0  0  0  0  0  0  0  0  0  0
    1.5344    0.5904    0.4897 C   0  0  0  0  0  0  0  0  0  0  0  0
   -3.7159   -1.5840   -0.5696 C   0  0  0  0  0  0  0  0  0  0  0  0
    3.0651    0.2439    0.6159 C   0  0  0  0  0  0  0  0  0  0  0  0
   -5.7272    0.8205    1.0620 C   0  0  0  0  0  0  0  0  0  0  0  0
   -5.5557    0.6543   -1.3420 C   0  0  0  0  0  0  0  0  0  0  0  0
    3.9865    1.3078   -0.0384 C   0  0  0  0  0  0  0  0  0  0  0  0
    3.3129   -1.1294   -0.0545 C   0  0  0  0  0  0  0  0  0  0  0  0
   -6.9827    1.4142    0.9314 C   0  0  0  0  0  0  0  0  0  0  0  0
   -6.8112    1.2481   -1.4727 C   0  0  0  0  0  0  0  0  0  0  0  0
    3.3778    0.2591    2.0778 C   0  0  0  0  0  0  0  0  0  0  0  0
   -7.5246    1.6280   -0.3360 C   0  0  0  0  0  0  0  0  0  0  0  0
    5.3367    1.1431    0.0842 C   0  0  0  0  0  0  0  0  0  0  0  0
    3.7751   -2.1507    0.7287 C   0  0  0  0  0  0  0  0  0  0  0  0
    3.3928    2.3459   -0.6976 C   0  0  0  0  0  0  0  0  0  0  0  0
    3.0562   -1.2449   -1.3926 C   0  0  0  0  0  0  0  0  0  0  0  0
    6.1649    2.0994   -0.5035 C   0  0  0  0  0  0  0  0  0  0  0  0
    3.9988   -3.3880    0.1247 C   0  0  0  0  0  0  0  0  0  0  0  0
    4.2209    3.3022   -1.2854 C   0  0  0  0  0  0  0  0  0  0  0  0
    3.2798   -2.4822   -1.9966 C   0  0  0  0  0  0  0  0  0  0  0  0
    5.6069    3.1789   -1.1882 C   0  0  0  0  0  0  0  0  0  0  0  0
    3.7511   -3.5537   -1.2380 C   0  0  0  0  0  0  0  0  0  0  0  0
   -3.2292    0.5525    2.0731 H   0  0  0  0  0  0  0  0  0  0  0  0
   -3.8241   -1.1064    2.0781 H   0  0  0  0  0  0  0  0  0  0  0  0
   -2.7441    0.6683   -1.7420 H   0  0  0  0  0  0  0  0  0  0  0  0
   -2.6193    1.6736   -0.3093 H   0  0  0  0  0  0  0  0  0  0  0  0
   -1.6339   -1.9112    1.2685 H   0  0  0  0  0  0  0  0  0  0  0  0
   -1.4809   -0.9385    2.7319 H   0  0  0  0  0  0  0  0  0  0  0  0
   -0.5212    0.8807   -0.9453 H   0  0  0  0  0  0  0  0  0  0  0  0
   -0.9539   -0.8252   -0.9556 H   0  0  0  0  0  0  0  0  0  0  0  0
    0.7212   -1.4152    0.7717 H   0  0  0  0  0  0  0  0  0  0  0  0
    0.7975   -0.4429    2.2451 H   0  0  0  0  0  0  0  0  0  0  0  0
    1.3403    1.5818    0.9256 H   0  0  0  0  0  0  0  0  0  0  0  0
    1.3144    0.6477   -0.5776 H   0  0  0  0  0  0  0  0  0  0  0  0
   -5.3618    0.6694    2.0709 H   0  0  0  0  0  0  0  0  0  0  0  0
   -5.0210    0.3612   -2.2409 H   0  0  0  0  0  0  0  0  0  0  0  0
   -4.7245   -3.2359   -0.3546 H   0  0  0  0  0  0  0  0  0  0  0  0
   -7.5401    1.7079    1.8161 H   0  0  0  0  0  0  0  0  0  0  0  0
   -7.2340    1.4133   -2.4594 H   0  0  0  0  0  0  0  0  0  0  0  0
   -8.5025    2.0893   -0.4376 H   0  0  0  0  0  0  0  0  0  0  0  0
    5.7871    0.3085    0.6109 H   0  0  0  0  0  0  0  0  0  0  0  0
    3.9826   -2.0754    1.7884 H   0  0  0  0  0  0  0  0  0  0  0  0
    2.3280    2.4969   -0.8096 H   0  0  0  0  0  0  0  0  0  0  0  0
    2.6972   -0.4231   -2.0021 H   0  0  0  0  0  0  0  0  0  0  0  0
    7.2441    2.0030   -0.4286 H   0  0  0  0  0  0  0  0  0  0  0  0
    4.3657   -4.2229    0.7147 H   0  0  0  0  0  0  0  0  0  0  0  0
    3.7876    4.1430   -1.8193 H   0  0  0  0  0  0  0  0  0  0  0  0
    3.0887   -2.6111   -3.0580 H   0  0  0  0  0  0  0  0  0  0  0  0
    6.2517    3.9233   -1.6460 H   0  0  0  0  0  0  0  0  0  0  0  0
    3.9256   -4.5169   -1.7084 H   0  0  0  0  0  0  0  0  0  0  0  0
  1 13  1  0  0  0  0
  1 47  1  0  0  0  0
  2 13  2  0  0  0  0
  3  8  1  0  0  0  0
  3  9  1  0  0  0  0
  3 10  1  0  0  0  0
  4 21  3  0  0  0  0
  5  6  1  0  0  0  0
  5  7  1  0  0  0  0
  5 11  1  0  0  0  0
  5 13  1  0  0  0  0
  6  8  1  0  0  0  0
  6 33  1  0  0  0  0
  6 34  1  0  0  0  0
  7  9  1  0  0  0  0
  7 35  1  0  0  0  0
  7 36  1  0  0  0  0
  8 37  1  0  0  0  0
  8 38  1  0  0  0  0
  9 39  1  0  0  0  0
  9 40  1  0  0  0  0
 10 12  1  0  0  0  0
 10 41  1  0  0  0  0
 10 42  1  0  0  0  0
 11 15  2  0  0  0  0
 11 16  1  0  0  0  0
 12 14  1  0  0  0  0
 12 43  1  0  0  0  0
 12 44  1  0  0  0  0
 14 17  1  0  0  0  0
 14 18  1  0  0  0  0
 14 21  1  0  0  0  0
 15 19  1  0  0  0  0
 15 45  1  0  0  0  0
 16 20  2  0  0  0  0
 16 46  1  0  0  0  0
 17 23  2  0  0  0  0
 17 25  1  0  0  0  0
 18 24  2  0  0  0  0
 18 26  1  0  0  0  0
 19 22  2  0  0  0  0
 19 48  1  0  0  0  0
 20 22  1  0  0  0  0
 20 49  1  0  0  0  0
 22 50  1  0  0  0  0
 23 27  1  0  0  0  0
 23 51  1  0  0  0  0
 24 28  1  0  0  0  0
 24 52  1  0  0  0  0
 25 29  2  0  0  0  0
 25 53  1  0  0  0  0
 26 30  2  0  0  0  0
 26 54  1  0  0  0  0
 27 31  2  0  0  0  0
 27 55  1  0  0  0  0
 28 32  2  0  0  0  0
 28 56  1  0  0  0  0
 29 31  1  0  0  0  0
 29 57  1  0  0  0  0
 30 32  1  0  0  0  0
 30 58  1  0  0  0  0
 31 59  1  0  0  0  0
 32 60  1  0  0  0  0
M  END
> <DATABASE_ID>
DB01501

> <DATABASE_NAME>
drugbank

> <ORIGINAL_SOURCE>
PUBCHEM

> <ORIGINAL_SOURCE_URL>
https://pubchem.ncbi.nlm.nih.gov/rest/pug/compound/inchikey/UFIVBRCCIRTJTN-UHFFFAOYSA-N/SDF?record_type=3d

> <SMILES>
OC(=O)C1(CCN(CCC(C#N)(C2=CC=CC=C2)C2=CC=CC=C2)CC1)C1=CC=CC=C1

> <INCHI_IDENTIFIER>
InChI=1S/C28H28N2O2/c29-22-28(24-12-6-2-7-13-24,25-14-8-3-9-15-25)18-21-30-19-16-27(17-20-30,26(31)32)23-10-4-1-5-11-23/h1-15H,16-21H2,(H,31,32)

> <INCHI_KEY>
UFIVBRCCIRTJTN-UHFFFAOYSA-N

> <FORMULA>
C28H28N2O2

> <MOLECULAR_WEIGHT>
424.5341

> <EXACT_MASS>
424.21507815

> <JCHEM_ACCEPTOR_COUNT>
4

> <JCHEM_ATOM_COUNT>
60

> <JCHEM_AVERAGE_NEUTRAL_MICROSPECIES_CHARGE>
-0.003464135538552515

> <JCHEM_AVERAGE_POLARIZABILITY>
47.585387280714926

> <JCHEM_BIOAVAILABILITY>
1

> <JCHEM_DONOR_COUNT>
1

> <JCHEM_FORMAL_CHARGE>
0

> <JCHEM_GHOSE_FILTER>
0

> <JCHEM_IUPAC>
1-(3-cyano-3,3-diphenylpropyl)-4-phenylpiperidine-4-carboxylic acid

> <ALOGPS_LOGP>
4.39

> <JCHEM_LOGP>
2.649783819235018

> <ALOGPS_LOGS>
-5.31

> <JCHEM_MDDR_LIKE_RULE>
1

> <JCHEM_NEUTRAL_CHARGE>
0

> <JCHEM_NUMBER_OF_RINGS>
4

> <JCHEM_PHYSIOLOGICAL_CHARGE>
0

> <JCHEM_PKA_STRONGEST_ACIDIC>
3.3836011909163433

> <JCHEM_PKA_STRONGEST_BASIC>
9.406326236510976

> <JCHEM_POLAR_SURFACE_AREA>
64.33

> <JCHEM_REFRACTIVITY>
137.2442

> <JCHEM_ROTATABLE_BOND_COUNT>
7

> <JCHEM_RULE_OF_FIVE>
1

> <ALOGPS_SOLUBILITY>
2.08e-03 g/l

> <JCHEM_TRADITIONAL_IUPAC>
biotin

> <JCHEM_VEBER_RULE>
0

$$$$
