3180
  -OEChem-10051719203D

 48 49  0     0  0  0  0  0  0999 V2000
   -1.1684   -2.3843   -0.6748 O   0  0  0  0  0  0  0  0  0  0  0  0
    4.2527    0.3795    0.9469 O   0  0  0  0  0  0  0  0  0  0  0  0
   -4.5821   -0.0368    0.1550 N   0  0  0  0  0  0  0  0  0  0  0  0
   -5.8826   -0.6833   -0.0701 C   0  0  0  0  0  0  0  0  0  0  0  0
   -4.4714    1.2140   -0.6088 C   0  0  0  0  0  0  0  0  0  0  0  0
   -7.0344    0.2378    0.3356 C   0  0  0  0  0  0  0  0  0  0  0  0
   -5.5770    2.1969   -0.2210 C   0  0  0  0  0  0  0  0  0  0  0  0
   -6.9580    1.5746   -0.3930 C   0  0  0  0  0  0  0  0  0  0  0  0
   -3.4912   -0.9469   -0.1930 C   0  0  0  0  0  0  0  0  0  0  0  0
   -2.1336   -0.3378    0.1571 C   0  0  0  0  0  0  0  0  0  0  0  0
   -0.9834   -1.2776   -0.1735 C   0  0  0  0  0  0  0  0  0  0  0  0
    0.4114   -0.8364    0.1238 C   0  0  0  0  0  0  0  0  0  0  0  0
    0.6035    0.4049    0.6859 C   0  0  0  0  0  0  0  0  0  0  0  0
    1.4505   -1.6876   -0.1749 C   0  0  0  0  0  0  0  0  0  0  0  0
    6.4166    0.8954    0.0485 C   0  0  0  0  0  0  0  0  0  0  0  0
    2.9815   -0.0223    0.6735 C   0  0  0  0  0  0  0  0  0  0  0  0
    1.9065    0.8176    0.9645 C   0  0  0  0  0  0  0  0  0  0  0  0
    2.7534   -1.2749    0.1037 C   0  0  0  0  0  0  0  0  0  0  0  0
    5.2884   -0.1247    0.1051 C   0  0  0  0  0  0  0  0  0  0  0  0
    7.5563    0.4259   -0.8512 C   0  0  0  0  0  0  0  0  0  0  0  0
    8.6614    1.4662   -0.9391 C   0  0  0  0  0  0  0  0  0  0  0  0
   -5.9520   -1.5987    0.5300 H   0  0  0  0  0  0  0  0  0  0  0  0
   -5.9976   -0.9739   -1.1228 H   0  0  0  0  0  0  0  0  0  0  0  0
   -4.5087    1.0214   -1.6890 H   0  0  0  0  0  0  0  0  0  0  0  0
   -3.5377    1.7417   -0.3974 H   0  0  0  0  0  0  0  0  0  0  0  0
   -7.9919   -0.2483    0.1166 H   0  0  0  0  0  0  0  0  0  0  0  0
   -7.0033    0.4096    1.4190 H   0  0  0  0  0  0  0  0  0  0  0  0
   -5.4442    2.5074    0.8234 H   0  0  0  0  0  0  0  0  0  0  0  0
   -5.5016    3.1014   -0.8352 H   0  0  0  0  0  0  0  0  0  0  0  0
   -7.1604    1.4221   -1.4602 H   0  0  0  0  0  0  0  0  0  0  0  0
   -7.7277    2.2552   -0.0127 H   0  0  0  0  0  0  0  0  0  0  0  0
   -3.6031   -1.8832    0.3693 H   0  0  0  0  0  0  0  0  0  0  0  0
   -3.5222   -1.2133   -1.2582 H   0  0  0  0  0  0  0  0  0  0  0  0
   -2.1077   -0.1059    1.2279 H   0  0  0  0  0  0  0  0  0  0  0  0
   -1.9475    0.5638   -0.4326 H   0  0  0  0  0  0  0  0  0  0  0  0
   -0.1996    1.0908    0.9292 H   0  0  0  0  0  0  0  0  0  0  0  0
    1.2939   -2.6686   -0.6126 H   0  0  0  0  0  0  0  0  0  0  0  0
    6.0200    1.8535   -0.3106 H   0  0  0  0  0  0  0  0  0  0  0  0
    6.7870    1.0863    1.0635 H   0  0  0  0  0  0  0  0  0  0  0  0
    5.6561   -1.0709    0.5188 H   0  0  0  0  0  0  0  0  0  0  0  0
    4.9300   -0.2882   -0.9196 H   0  0  0  0  0  0  0  0  0  0  0  0
    2.0787    1.7943    1.4085 H   0  0  0  0  0  0  0  0  0  0  0  0
    3.5593   -1.9700   -0.1124 H   0  0  0  0  0  0  0  0  0  0  0  0
    7.9728   -0.5120   -0.4656 H   0  0  0  0  0  0  0  0  0  0  0  0
    7.1768    0.2221   -1.8593 H   0  0  0  0  0  0  0  0  0  0  0  0
    9.4679    1.1087   -1.5870 H   0  0  0  0  0  0  0  0  0  0  0  0
    9.0852    1.6725    0.0489 H   0  0  0  0  0  0  0  0  0  0  0  0
    8.2836    2.4060   -1.3543 H   0  0  0  0  0  0  0  0  0  0  0  0
  1 11  2  0  0  0  0
  2 16  1  0  0  0  0
  2 19  1  0  0  0  0
  3  4  1  0  0  0  0
  3  5  1  0  0  0  0
  3  9  1  0  0  0  0
  4  6  1  0  0  0  0
  4 22  1  0  0  0  0
  4 23  1  0  0  0  0
  5  7  1  0  0  0  0
  5 24  1  0  0  0  0
  5 25  1  0  0  0  0
  6  8  1  0  0  0  0
  6 26  1  0  0  0  0
  6 27  1  0  0  0  0
  7  8  1  0  0  0  0
  7 28  1  0  0  0  0
  7 29  1  0  0  0  0
  8 30  1  0  0  0  0
  8 31  1  0  0  0  0
  9 10  1  0  0  0  0
  9 32  1  0  0  0  0
  9 33  1  0  0  0  0
 10 11  1  0  0  0  0
 10 34  1  0  0  0  0
 10 35  1  0  0  0  0
 11 12  1  0  0  0  0
 12 13  2  0  0  0  0
 12 14  1  0  0  0  0
 13 17  1  0  0  0  0
 13 36  1  0  0  0  0
 14 18  2  0  0  0  0
 14 37  1  0  0  0  0
 15 19  1  0  0  0  0
 15 20  1  0  0  0  0
 15 38  1  0  0  0  0
 15 39  1  0  0  0  0
 16 17  2  0  0  0  0
 16 18  1  0  0  0  0
 17 42  1  0  0  0  0
 18 43  1  0  0  0  0
 19 40  1  0  0  0  0
 19 41  1  0  0  0  0
 20 21  1  0  0  0  0
 20 44  1  0  0  0  0
 20 45  1  0  0  0  0
 21 46  1  0  0  0  0
 21 47  1  0  0  0  0
 21 48  1  0  0  0  0
M  END
> <DATABASE_ID>
DB00645

> <DATABASE_NAME>
drugbank

> <ORIGINAL_SOURCE>
PUBCHEM

> <ORIGINAL_SOURCE_URL>
https://pubchem.ncbi.nlm.nih.gov/rest/pug/compound/inchikey/BZEWSEKUUPWQDQ-UHFFFAOYSA-N/SDF?record_type=3d

> <SMILES>
CCCCOC1=CC=C(C=C1)C(=O)CCN1CCCCC1

> <INCHI_IDENTIFIER>
InChI=1S/C18H27NO2/c1-2-3-15-21-17-9-7-16(8-10-17)18(20)11-14-19-12-5-4-6-13-19/h7-10H,2-6,11-15H2,1H3

> <INCHI_KEY>
BZEWSEKUUPWQDQ-UHFFFAOYSA-N

> <FORMULA>
C18H27NO2

> <MOLECULAR_WEIGHT>
289.4125

> <EXACT_MASS>
289.204179113

> <JCHEM_ACCEPTOR_COUNT>
3

> <JCHEM_ATOM_COUNT>
48

> <JCHEM_AVERAGE_NEUTRAL_MICROSPECIES_CHARGE>
0.9585863533291027

> <JCHEM_AVERAGE_POLARIZABILITY>
35.13910714431107

> <JCHEM_BIOAVAILABILITY>
1

> <JCHEM_DONOR_COUNT>
0

> <JCHEM_FORMAL_CHARGE>
0

> <JCHEM_GHOSE_FILTER>
1

> <JCHEM_IUPAC>
1-(4-butoxyphenyl)-3-(piperidin-1-yl)propan-1-one

> <ALOGPS_LOGP>
4.11

> <JCHEM_LOGP>
3.675998439999999

> <ALOGPS_LOGS>
-3.80

> <JCHEM_MDDR_LIKE_RULE>
0

> <JCHEM_NEUTRAL_CHARGE>
1

> <JCHEM_NUMBER_OF_RINGS>
2

> <JCHEM_PHYSIOLOGICAL_CHARGE>
1

> <JCHEM_PKA_STRONGEST_ACIDIC>
16.287717647901033

> <JCHEM_PKA_STRONGEST_BASIC>
8.364487760920678

> <JCHEM_POLAR_SURFACE_AREA>
29.54

> <JCHEM_REFRACTIVITY>
87.06800000000001

> <JCHEM_ROTATABLE_BOND_COUNT>
8

> <JCHEM_RULE_OF_FIVE>
1

> <ALOGPS_SOLUBILITY>
4.60e-02 g/l

> <JCHEM_TRADITIONAL_IUPAC>
biotin

> <JCHEM_VEBER_RULE>
1

$$$$
