
     RDKit          3D

 22 24  0  0  0  0  0  0  0  0999 V2000
    7.9611   62.5180   -8.3479 O   0  0  0  0  0  0  0  0  0  0  0  0
    8.7087   63.1261   -7.5378 C   0  0  0  0  0  0  0  0  0  0  0  0
    9.2158   64.3417   -7.9420 O   0  0  0  0  0  0  0  0  0  0  0  0
    8.9882   62.5247   -6.2515 C   0  0  0  0  0  0  0  0  0  0  0  0
    8.4848   61.3174   -5.8865 C   0  0  0  0  0  0  0  0  0  0  0  0
    8.7635   60.7615   -4.6549 C   0  0  0  0  0  0  0  0  0  0  0  0
    8.1978   59.5246   -4.3856 O   0  0  0  0  0  0  0  0  0  0  0  0
    8.1310   59.0154   -3.0435 C   0  0  0  0  0  0  0  0  0  0  0  0
    7.2234   57.8718   -3.0653 C   0  0  0  0  0  0  0  0  0  0  0  0
    6.0932   57.9015   -3.8540 C   0  0  0  0  0  0  0  0  0  0  0  0
    5.1977   56.8501   -3.9077 C   0  0  0  0  0  0  0  0  0  0  0  0
    5.4607   55.7272   -3.1308 C   0  0  0  0  0  0  0  0  0  0  0  0
    6.5831   55.6637   -2.3294 C   0  0  0  0  0  0  0  0  0  0  0  0
    6.8458   54.5474   -1.5580 C   0  0  0  0  0  0  0  0  0  0  0  0
    7.9587   54.4979   -0.7728 C   0  0  0  0  0  0  0  0  0  0  0  0
    8.8341   55.5542   -0.7364 C   0  0  0  0  0  0  0  0  0  0  0  0
    8.5465   56.6568   -1.5173 C   0  0  0  0  0  0  0  0  0  0  0  0
    7.4499   56.7477   -2.3131 C   0  0  0  0  0  0  0  0  0  0  0  0
    9.5696   61.4330   -3.7618 C   0  0  0  0  0  0  0  0  0  0  0  0
   10.0824   62.6594   -4.1296 C   0  0  0  0  0  0  0  0  0  0  0  0
    9.8034   63.2133   -5.3596 C   0  0  0  0  0  0  0  0  0  0  0  0
   10.3176   64.4447   -5.7307 O   0  0  0  0  0  0  0  0  0  0  0  0
  1  2  2  0
  2  3  1  0
  2  4  1  0
  4  5  2  0
  5  6  1  0
  6  7  1  0
  7  8  1  0
  8  9  1  0
  9 10  2  0
 10 11  1  0
 11 12  2  0
 12 13  1  0
 13 14  2  0
 14 15  1  0
 15 16  2  0
 16 17  1  0
 17 18  2  0
  6 19  2  0
 19 20  1  0
 20 21  2  0
 21 22  1  0
 21  4  1  0
 18  9  1  0
 18 13  1  0
M  END
$$$$
