
     RDKit          3D

 22 24  0  0  0  0  0  0  0  0999 V2000
   10.7370   64.2221   -6.4107 O   0  0  0  0  0  0  0  0  0  0  0  0
    9.6862   63.5322   -6.4806 C   0  0  0  0  0  0  0  0  0  0  0  0
    8.7560   63.8986   -7.4286 O   0  0  0  0  0  0  0  0  0  0  0  0
    9.5179   62.4138   -5.5777 C   0  0  0  0  0  0  0  0  0  0  0  0
    8.3776   61.6777   -5.5336 C   0  0  0  0  0  0  0  0  0  0  0  0
    8.2375   60.6149   -4.6649 C   0  0  0  0  0  0  0  0  0  0  0  0
    7.0316   59.9319   -4.7032 O   0  0  0  0  0  0  0  0  0  0  0  0
    5.8397   60.4976   -4.1335 C   0  0  0  0  0  0  0  0  0  0  0  0
    4.7454   59.5787   -4.4331 C   0  0  0  0  0  0  0  0  0  0  0  0
    4.8403   58.2508   -4.0754 C   0  0  0  0  0  0  0  0  0  0  0  0
    3.8376   57.3372   -4.3400 C   0  0  0  0  0  0  0  0  0  0  0  0
    2.6963   57.7901   -4.9926 C   0  0  0  0  0  0  0  0  0  0  0  0
    2.5678   59.1132   -5.3652 C   0  0  0  0  0  0  0  0  0  0  0  0
    1.4331   59.5643   -6.0126 C   0  0  0  0  0  0  0  0  0  0  0  0
    1.3191   60.8737   -6.3731 C   0  0  0  0  0  0  0  0  0  0  0  0
    2.3280   61.7628   -6.0991 C   0  0  0  0  0  0  0  0  0  0  0  0
    3.4504   61.2845   -5.4513 C   0  0  0  0  0  0  0  0  0  0  0  0
    3.6048   59.9888   -5.0749 C   0  0  0  0  0  0  0  0  0  0  0  0
    9.2685   60.2784   -3.8152 C   0  0  0  0  0  0  0  0  0  0  0  0
   10.4281   61.0241   -3.8576 C   0  0  0  0  0  0  0  0  0  0  0  0
   10.5667   62.0849   -4.7254 C   0  0  0  0  0  0  0  0  0  0  0  0
   11.7304   62.8348   -4.7695 O   0  0  0  0  0  0  0  0  0  0  0  0
  1  2  2  0
  2  3  1  0
  2  4  1  0
  4  5  2  0
  5  6  1  0
  6  7  1  0
  7  8  1  0
  8  9  1  0
  9 10  2  0
 10 11  1  0
 11 12  2  0
 12 13  1  0
 13 14  2  0
 14 15  1  0
 15 16  2  0
 16 17  1  0
 17 18  2  0
  6 19  2  0
 19 20  1  0
 20 21  2  0
 21 22  1  0
 21  4  1  0
 18  9  1  0
 18 13  1  0
M  END
$$$$
