
     RDKit          3D

 22 24  0  0  0  0  0  0  0  0999 V2000
    8.7450   63.3218   -7.6578 O   0  0  0  0  0  0  0  0  0  0  0  0
    9.4723   63.5931   -6.6666 C   0  0  0  0  0  0  0  0  0  0  0  0
   10.4169   64.5822   -6.8326 O   0  0  0  0  0  0  0  0  0  0  0  0
    9.2784   62.8640   -5.4316 C   0  0  0  0  0  0  0  0  0  0  0  0
    8.2567   61.9869   -5.2556 C   0  0  0  0  0  0  0  0  0  0  0  0
    8.0897   61.3017   -4.0697 C   0  0  0  0  0  0  0  0  0  0  0  0
    7.0133   60.4307   -3.9981 O   0  0  0  0  0  0  0  0  0  0  0  0
    6.2082   60.1490   -5.1546 C   0  0  0  0  0  0  0  0  0  0  0  0
    5.0189   59.4438   -4.6856 C   0  0  0  0  0  0  0  0  0  0  0  0
    4.9804   58.0659   -4.7037 C   0  0  0  0  0  0  0  0  0  0  0  0
    3.8786   57.3484   -4.2775 C   0  0  0  0  0  0  0  0  0  0  0  0
    2.7753   58.0578   -3.8159 C   0  0  0  0  0  0  0  0  0  0  0  0
    2.7796   59.4380   -3.7839 C   0  0  0  0  0  0  0  0  0  0  0  0
    1.6839   60.1437   -3.3240 C   0  0  0  0  0  0  0  0  0  0  0  0
    1.7028   61.5062   -3.2965 C   0  0  0  0  0  0  0  0  0  0  0  0
    2.8087   62.1971   -3.7243 C   0  0  0  0  0  0  0  0  0  0  0  0
    3.8892   61.4662   -4.1789 C   0  0  0  0  0  0  0  0  0  0  0  0
    3.9123   60.1091   -4.2234 C   0  0  0  0  0  0  0  0  0  0  0  0
    8.9707   61.4996   -3.0291 C   0  0  0  0  0  0  0  0  0  0  0  0
   10.0094   62.3898   -3.2047 C   0  0  0  0  0  0  0  0  0  0  0  0
   10.1751   63.0733   -4.3892 C   0  0  0  0  0  0  0  0  0  0  0  0
   11.2177   63.9674   -4.5675 O   0  0  0  0  0  0  0  0  0  0  0  0
  1  2  2  0
  2  3  1  0
  2  4  1  0
  4  5  2  0
  5  6  1  0
  6  7  1  0
  7  8  1  0
  8  9  1  0
  9 10  2  0
 10 11  1  0
 11 12  2  0
 12 13  1  0
 13 14  2  0
 14 15  1  0
 15 16  2  0
 16 17  1  0
 17 18  2  0
  6 19  2  0
 19 20  1  0
 20 21  2  0
 21 22  1  0
 21  4  1  0
 18  9  1  0
 18 13  1  0
M  END
$$$$
