
     RDKit          3D

 22 24  0  0  0  0  0  0  0  0999 V2000
   10.6918   64.1514   -7.1526 O   0  0  0  0  0  0  0  0  0  0  0  0
    9.7412   63.3320   -7.0530 C   0  0  0  0  0  0  0  0  0  0  0  0
    8.9692   63.1260   -8.1754 O   0  0  0  0  0  0  0  0  0  0  0  0
    9.5172   62.6653   -5.7883 C   0  0  0  0  0  0  0  0  0  0  0  0
    8.4665   61.8304   -5.5804 C   0  0  0  0  0  0  0  0  0  0  0  0
    8.2710   61.2044   -4.3665 C   0  0  0  0  0  0  0  0  0  0  0  0
    7.1663   60.3728   -4.2635 O   0  0  0  0  0  0  0  0  0  0  0  0
    6.3545   60.0717   -5.4103 C   0  0  0  0  0  0  0  0  0  0  0  0
    5.1906   59.3339   -4.9278 C   0  0  0  0  0  0  0  0  0  0  0  0
    5.1875   57.9555   -4.9518 C   0  0  0  0  0  0  0  0  0  0  0  0
    4.1108   57.2079   -4.5133 C   0  0  0  0  0  0  0  0  0  0  0  0
    2.9962   57.8865   -4.0331 C   0  0  0  0  0  0  0  0  0  0  0  0
    2.9653   59.2662   -3.9947 C   0  0  0  0  0  0  0  0  0  0  0  0
    1.8582   59.9413   -3.5162 C   0  0  0  0  0  0  0  0  0  0  0  0
    1.8423   61.3036   -3.4828 C   0  0  0  0  0  0  0  0  0  0  0  0
    2.9238   62.0248   -3.9230 C   0  0  0  0  0  0  0  0  0  0  0  0
    4.0163   61.3242   -4.3960 C   0  0  0  0  0  0  0  0  0  0  0  0
    4.0738   59.9683   -4.4471 C   0  0  0  0  0  0  0  0  0  0  0  0
    9.1525   61.4198   -3.3298 C   0  0  0  0  0  0  0  0  0  0  0  0
   10.2207   62.2672   -3.5377 C   0  0  0  0  0  0  0  0  0  0  0  0
   10.4148   62.8915   -4.7502 C   0  0  0  0  0  0  0  0  0  0  0  0
   11.4870   63.7426   -4.9610 O   0  0  0  0  0  0  0  0  0  0  0  0
  1  2  2  0
  2  3  1  0
  2  4  1  0
  4  5  2  0
  5  6  1  0
  6  7  1  0
  7  8  1  0
  8  9  1  0
  9 10  2  0
 10 11  1  0
 11 12  2  0
 12 13  1  0
 13 14  2  0
 14 15  1  0
 15 16  2  0
 16 17  1  0
 17 18  2  0
  6 19  2  0
 19 20  1  0
 20 21  2  0
 21 22  1  0
 21  4  1  0
 18  9  1  0
 18 13  1  0
M  END
$$$$
