
     RDKit          3D

 22 24  0  0  0  0  0  0  0  0999 V2000
   11.1354   64.4136   -6.2360 O   0  0  0  0  0  0  0  0  0  0  0  0
   10.5032   63.6668   -5.4438 C   0  0  0  0  0  0  0  0  0  0  0  0
   10.9139   63.6551   -4.1288 O   0  0  0  0  0  0  0  0  0  0  0  0
    9.4011   62.8773   -5.9502 C   0  0  0  0  0  0  0  0  0  0  0  0
    8.6907   62.0283   -5.1636 C   0  0  0  0  0  0  0  0  0  0  0  0
    7.6431   61.2844   -5.6664 C   0  0  0  0  0  0  0  0  0  0  0  0
    6.9861   60.4494   -4.7756 O   0  0  0  0  0  0  0  0  0  0  0  0
    5.9561   59.5518   -5.2212 C   0  0  0  0  0  0  0  0  0  0  0  0
    5.0624   59.3309   -4.0880 C   0  0  0  0  0  0  0  0  0  0  0  0
    3.8412   59.9684   -4.0364 C   0  0  0  0  0  0  0  0  0  0  0  0
    2.9598   59.8002   -2.9851 C   0  0  0  0  0  0  0  0  0  0  0  0
    3.3337   58.9527   -1.9480 C   0  0  0  0  0  0  0  0  0  0  0  0
    4.5491   58.2982   -1.9673 C   0  0  0  0  0  0  0  0  0  0  0  0
    4.9207   57.4547   -0.9374 C   0  0  0  0  0  0  0  0  0  0  0  0
    6.1231   56.8138   -0.9704 C   0  0  0  0  0  0  0  0  0  0  0  0
    6.9817   56.9960   -2.0254 C   0  0  0  0  0  0  0  0  0  0  0  0
    6.5846   57.8446   -3.0405 C   0  0  0  0  0  0  0  0  0  0  0  0
    5.3966   58.5025   -3.0473 C   0  0  0  0  0  0  0  0  0  0  0  0
    7.2958   61.3928   -6.9952 C   0  0  0  0  0  0  0  0  0  0  0  0
    8.0153   62.2542   -7.7967 C   0  0  0  0  0  0  0  0  0  0  0  0
    9.0610   62.9965   -7.2936 C   0  0  0  0  0  0  0  0  0  0  0  0
    9.7847   63.8622   -8.0969 O   0  0  0  0  0  0  0  0  0  0  0  0
  1  2  2  0
  2  3  1  0
  2  4  1  0
  4  5  2  0
  5  6  1  0
  6  7  1  0
  7  8  1  0
  8  9  1  0
  9 10  2  0
 10 11  1  0
 11 12  2  0
 12 13  1  0
 13 14  2  0
 14 15  1  0
 15 16  2  0
 16 17  1  0
 17 18  2  0
  6 19  2  0
 19 20  1  0
 20 21  2  0
 21 22  1  0
 21  4  1  0
 18  9  1  0
 18 13  1  0
M  END
$$$$
