
     RDKit          3D

 22 24  0  0  0  0  0  0  0  0999 V2000
    9.0360   63.9091   -6.8719 O   0  0  0  0  0  0  0  0  0  0  0  0
    9.6924   63.6279   -5.8350 C   0  0  0  0  0  0  0  0  0  0  0  0
   10.7332   64.4675   -5.5035 O   0  0  0  0  0  0  0  0  0  0  0  0
    9.3232   62.4600   -5.0643 C   0  0  0  0  0  0  0  0  0  0  0  0
    8.2408   61.6983   -5.3683 C   0  0  0  0  0  0  0  0  0  0  0  0
    7.9061   60.5883   -4.6202 C   0  0  0  0  0  0  0  0  0  0  0  0
    6.7812   59.8826   -5.0190 O   0  0  0  0  0  0  0  0  0  0  0  0
    5.9316   60.3721   -6.0695 C   0  0  0  0  0  0  0  0  0  0  0  0
    4.6336   60.6638   -5.4681 C   0  0  0  0  0  0  0  0  0  0  0  0
    4.5589   61.4242   -4.3206 C   0  0  0  0  0  0  0  0  0  0  0  0
    3.3578   61.7252   -3.7065 C   0  0  0  0  0  0  0  0  0  0  0  0
    2.1897   61.2351   -4.2799 C   0  0  0  0  0  0  0  0  0  0  0  0
    2.2277   60.4705   -5.4288 C   0  0  0  0  0  0  0  0  0  0  0  0
    1.0669   59.9842   -5.9999 C   0  0  0  0  0  0  0  0  0  0  0  0
    1.1194   59.2320   -7.1352 C   0  0  0  0  0  0  0  0  0  0  0  0
    2.3240   58.9466   -7.7276 C   0  0  0  0  0  0  0  0  0  0  0  0
    3.4678   59.4454   -7.1352 C   0  0  0  0  0  0  0  0  0  0  0  0
    3.4607   60.1981   -6.0049 C   0  0  0  0  0  0  0  0  0  0  0  0
    8.6768   60.2296   -3.5360 C   0  0  0  0  0  0  0  0  0  0  0  0
    9.7768   61.0011   -3.2247 C   0  0  0  0  0  0  0  0  0  0  0  0
   10.1099   62.1091   -3.9724 C   0  0  0  0  0  0  0  0  0  0  0  0
   11.2143   62.8850   -3.6614 O   0  0  0  0  0  0  0  0  0  0  0  0
  1  2  2  0
  2  3  1  0
  2  4  1  0
  4  5  2  0
  5  6  1  0
  6  7  1  0
  7  8  1  0
  8  9  1  0
  9 10  2  0
 10 11  1  0
 11 12  2  0
 12 13  1  0
 13 14  2  0
 14 15  1  0
 15 16  2  0
 16 17  1  0
 17 18  2  0
  6 19  2  0
 19 20  1  0
 20 21  2  0
 21 22  1  0
 21  4  1  0
 18  9  1  0
 18 13  1  0
M  END
$$$$
