
     RDKit          3D

 22 24  0  0  0  0  0  0  0  0999 V2000
   10.4406   64.3070   -6.3167 O   0  0  0  0  0  0  0  0  0  0  0  0
   10.0892   63.3392   -5.5922 C   0  0  0  0  0  0  0  0  0  0  0  0
   10.7335   63.1932   -4.3831 O   0  0  0  0  0  0  0  0  0  0  0  0
    9.0476   62.4511   -6.0619 C   0  0  0  0  0  0  0  0  0  0  0  0
    8.6474   61.3606   -5.3584 C   0  0  0  0  0  0  0  0  0  0  0  0
    7.6521   60.5263   -5.8243 C   0  0  0  0  0  0  0  0  0  0  0  0
    7.3218   59.4419   -5.0259 O   0  0  0  0  0  0  0  0  0  0  0  0
    6.0553   58.7770   -5.1640 C   0  0  0  0  0  0  0  0  0  0  0  0
    5.3007   59.0374   -3.9416 C   0  0  0  0  0  0  0  0  0  0  0  0
    5.6439   58.3998   -2.7685 C   0  0  0  0  0  0  0  0  0  0  0  0
    4.9602   58.6046   -1.5848 C   0  0  0  0  0  0  0  0  0  0  0  0
    3.8881   59.4900   -1.5941 C   0  0  0  0  0  0  0  0  0  0  0  0
    3.5170   60.1458   -2.7509 C   0  0  0  0  0  0  0  0  0  0  0  0
    2.4523   61.0270   -2.7605 C   0  0  0  0  0  0  0  0  0  0  0  0
    2.0982   61.6685   -3.9096 C   0  0  0  0  0  0  0  0  0  0  0  0
    2.7926   61.4496   -5.0729 C   0  0  0  0  0  0  0  0  0  0  0  0
    3.8519   60.5639   -5.0343 C   0  0  0  0  0  0  0  0  0  0  0  0
    4.2380   59.9038   -3.9121 C   0  0  0  0  0  0  0  0  0  0  0  0
    7.0389   60.7905   -7.0294 C   0  0  0  0  0  0  0  0  0  0  0  0
    7.4431   61.8974   -7.7463 C   0  0  0  0  0  0  0  0  0  0  0  0
    8.4369   62.7296   -7.2801 C   0  0  0  0  0  0  0  0  0  0  0  0
    8.8440   63.8416   -7.9985 O   0  0  0  0  0  0  0  0  0  0  0  0
  1  2  2  0
  2  3  1  0
  2  4  1  0
  4  5  2  0
  5  6  1  0
  6  7  1  0
  7  8  1  0
  8  9  1  0
  9 10  2  0
 10 11  1  0
 11 12  2  0
 12 13  1  0
 13 14  2  0
 14 15  1  0
 15 16  2  0
 16 17  1  0
 17 18  2  0
  6 19  2  0
 19 20  1  0
 20 21  2  0
 21 22  1  0
 21  4  1  0
 18  9  1  0
 18 13  1  0
M  END
$$$$
