
     RDKit          3D

 22 24  0  0  0  0  0  0  0  0999 V2000
    7.7652   55.2821   -0.6344 O   0  0  0  0  0  0  0  0  0  0  0  0
    8.2762   56.2677   -1.2282 C   0  0  0  0  0  0  0  0  0  0  0  0
    9.6027   56.5371   -0.9713 O   0  0  0  0  0  0  0  0  0  0  0  0
    7.4563   57.0475   -2.1304 C   0  0  0  0  0  0  0  0  0  0  0  0
    7.9661   58.0384   -2.9065 C   0  0  0  0  0  0  0  0  0  0  0  0
    7.1667   58.7703   -3.7603 C   0  0  0  0  0  0  0  0  0  0  0  0
    7.7907   59.7582   -4.5067 O   0  0  0  0  0  0  0  0  0  0  0  0
    7.0388   60.6105   -5.3860 C   0  0  0  0  0  0  0  0  0  0  0  0
    7.9988   61.4719   -6.0701 C   0  0  0  0  0  0  0  0  0  0  0  0
    8.1440   61.3944   -7.4388 C   0  0  0  0  0  0  0  0  0  0  0  0
    9.0415   62.1812   -8.1358 C   0  0  0  0  0  0  0  0  0  0  0  0
    9.8201   63.0798   -7.4149 C   0  0  0  0  0  0  0  0  0  0  0  0
    9.7006   63.1837   -6.0434 C   0  0  0  0  0  0  0  0  0  0  0  0
   10.4733   64.0777   -5.3264 C   0  0  0  0  0  0  0  0  0  0  0  0
   10.3436   64.1707   -3.9729 C   0  0  0  0  0  0  0  0  0  0  0  0
    9.4450   63.3792   -3.3025 C   0  0  0  0  0  0  0  0  0  0  0  0
    8.6861   62.4949   -4.0442 C   0  0  0  0  0  0  0  0  0  0  0  0
    8.7835   62.3700   -5.3930 C   0  0  0  0  0  0  0  0  0  0  0  0
    5.8175   58.5032   -3.8402 C   0  0  0  0  0  0  0  0  0  0  0  0
    5.2966   57.4974   -3.0533 C   0  0  0  0  0  0  0  0  0  0  0  0
    6.0958   56.7673   -2.2012 C   0  0  0  0  0  0  0  0  0  0  0  0
    5.5746   55.7568   -1.4103 O   0  0  0  0  0  0  0  0  0  0  0  0
  1  2  2  0
  2  3  1  0
  2  4  1  0
  4  5  2  0
  5  6  1  0
  6  7  1  0
  7  8  1  0
  8  9  1  0
  9 10  2  0
 10 11  1  0
 11 12  2  0
 12 13  1  0
 13 14  2  0
 14 15  1  0
 15 16  2  0
 16 17  1  0
 17 18  2  0
  6 19  2  0
 19 20  1  0
 20 21  2  0
 21 22  1  0
 21  4  1  0
 18  9  1  0
 18 13  1  0
M  END
$$$$
