
     RDKit          3D

 22 24  0  0  0  0  0  0  0  0999 V2000
   11.3845   63.8977   -5.0955 O   0  0  0  0  0  0  0  0  0  0  0  0
   10.5325   63.0213   -4.7939 C   0  0  0  0  0  0  0  0  0  0  0  0
   10.6305   62.4544   -3.5420 O   0  0  0  0  0  0  0  0  0  0  0  0
    9.5170   62.6654   -5.7617 C   0  0  0  0  0  0  0  0  0  0  0  0
    8.6016   61.6890   -5.5321 C   0  0  0  0  0  0  0  0  0  0  0  0
    7.6413   61.3651   -6.4684 C   0  0  0  0  0  0  0  0  0  0  0  0
    6.7564   60.3525   -6.1307 O   0  0  0  0  0  0  0  0  0  0  0  0
    5.3413   60.5944   -6.0662 C   0  0  0  0  0  0  0  0  0  0  0  0
    4.6849   59.2903   -6.0595 C   0  0  0  0  0  0  0  0  0  0  0  0
    4.4209   58.6434   -7.2479 C   0  0  0  0  0  0  0  0  0  0  0  0
    3.7968   57.4113   -7.2997 C   0  0  0  0  0  0  0  0  0  0  0  0
    3.4274   56.8148   -6.0991 C   0  0  0  0  0  0  0  0  0  0  0  0
    3.6766   57.4343   -4.8908 C   0  0  0  0  0  0  0  0  0  0  0  0
    3.3110   56.8413   -3.6971 C   0  0  0  0  0  0  0  0  0  0  0  0
    3.5647   57.4638   -2.5115 C   0  0  0  0  0  0  0  0  0  0  0  0
    4.1863   58.6870   -2.4850 C   0  0  0  0  0  0  0  0  0  0  0  0
    4.5405   59.2562   -3.6928 C   0  0  0  0  0  0  0  0  0  0  0  0
    4.3065   58.6711   -4.8958 C   0  0  0  0  0  0  0  0  0  0  0  0
    7.5954   62.0376   -7.6699 C   0  0  0  0  0  0  0  0  0  0  0  0
    8.5238   63.0299   -7.9062 C   0  0  0  0  0  0  0  0  0  0  0  0
    9.4819   63.3524   -6.9705 C   0  0  0  0  0  0  0  0  0  0  0  0
   10.4150   64.3486   -7.2058 O   0  0  0  0  0  0  0  0  0  0  0  0
  1  2  2  0
  2  3  1  0
  2  4  1  0
  4  5  2  0
  5  6  1  0
  6  7  1  0
  7  8  1  0
  8  9  1  0
  9 10  2  0
 10 11  1  0
 11 12  2  0
 12 13  1  0
 13 14  2  0
 14 15  1  0
 15 16  2  0
 16 17  1  0
 17 18  2  0
  6 19  2  0
 19 20  1  0
 20 21  2  0
 21 22  1  0
 21  4  1  0
 18  9  1  0
 18 13  1  0
M  END
$$$$
