
     RDKit          3D

 22 24  0  0  0  0  0  0  0  0999 V2000
    9.6206   64.1658   -7.0400 O   0  0  0  0  0  0  0  0  0  0  0  0
   10.0744   63.7914   -5.9270 C   0  0  0  0  0  0  0  0  0  0  0  0
   11.1775   64.4590   -5.4416 O   0  0  0  0  0  0  0  0  0  0  0  0
    9.4236   62.7008   -5.2332 C   0  0  0  0  0  0  0  0  0  0  0  0
    8.2548   62.1583   -5.6618 C   0  0  0  0  0  0  0  0  0  0  0  0
    7.6505   61.1185   -4.9855 C   0  0  0  0  0  0  0  0  0  0  0  0
    6.4597   60.6404   -5.5106 O   0  0  0  0  0  0  0  0  0  0  0  0
    5.4038   61.5371   -5.8924 C   0  0  0  0  0  0  0  0  0  0  0  0
    4.2682   60.7127   -6.2956 C   0  0  0  0  0  0  0  0  0  0  0  0
    4.3477   59.9344   -7.4307 C   0  0  0  0  0  0  0  0  0  0  0  0
    3.3013   59.1405   -7.8611 C   0  0  0  0  0  0  0  0  0  0  0  0
    2.1310   59.1378   -7.1101 C   0  0  0  0  0  0  0  0  0  0  0  0
    2.0170   59.9051   -5.9680 C   0  0  0  0  0  0  0  0  0  0  0  0
    0.8546   59.9018   -5.2204 C   0  0  0  0  0  0  0  0  0  0  0  0
    0.7567   60.6630   -4.0941 C   0  0  0  0  0  0  0  0  0  0  0  0
    1.8094   61.4430   -3.6859 C   0  0  0  0  0  0  0  0  0  0  0  0
    2.9587   61.4270   -4.4522 C   0  0  0  0  0  0  0  0  0  0  0  0
    3.0984   60.6841   -5.5804 C   0  0  0  0  0  0  0  0  0  0  0  0
    8.2325   60.6062   -3.8466 C   0  0  0  0  0  0  0  0  0  0  0  0
    9.4197   61.1550   -3.4087 C   0  0  0  0  0  0  0  0  0  0  0  0
   10.0220   62.1931   -4.0849 C   0  0  0  0  0  0  0  0  0  0  0  0
   11.2142   62.7454   -3.6467 O   0  0  0  0  0  0  0  0  0  0  0  0
  1  2  2  0
  2  3  1  0
  2  4  1  0
  4  5  2  0
  5  6  1  0
  6  7  1  0
  7  8  1  0
  8  9  1  0
  9 10  2  0
 10 11  1  0
 11 12  2  0
 12 13  1  0
 13 14  2  0
 14 15  1  0
 15 16  2  0
 16 17  1  0
 17 18  2  0
  6 19  2  0
 19 20  1  0
 20 21  2  0
 21 22  1  0
 21  4  1  0
 18  9  1  0
 18 13  1  0
M  END
$$$$
