
     RDKit          3D

 22 24  0  0  0  0  0  0  0  0999 V2000
   10.2642   61.7704   -3.2655 O   0  0  0  0  0  0  0  0  0  0  0  0
   10.4221   62.6502   -4.1522 C   0  0  0  0  0  0  0  0  0  0  0  0
   11.4302   63.5682   -3.9539 O   0  0  0  0  0  0  0  0  0  0  0  0
    9.5517   62.6474   -5.3083 C   0  0  0  0  0  0  0  0  0  0  0  0
    8.5766   61.7188   -5.4844 C   0  0  0  0  0  0  0  0  0  0  0  0
    7.7571   61.7339   -6.5943 C   0  0  0  0  0  0  0  0  0  0  0  0
    6.7945   60.7392   -6.6734 O   0  0  0  0  0  0  0  0  0  0  0  0
    6.7305   59.6888   -5.6949 C   0  0  0  0  0  0  0  0  0  0  0  0
    5.3824   59.7086   -5.1346 C   0  0  0  0  0  0  0  0  0  0  0  0
    4.2955   59.9185   -5.9562 C   0  0  0  0  0  0  0  0  0  0  0  0
    2.9992   59.9530   -5.4780 C   0  0  0  0  0  0  0  0  0  0  0  0
    2.8004   59.7675   -4.1143 C   0  0  0  0  0  0  0  0  0  0  0  0
    3.8660   59.5548   -3.2626 C   0  0  0  0  0  0  0  0  0  0  0  0
    3.6691   59.3689   -1.9073 C   0  0  0  0  0  0  0  0  0  0  0  0
    4.7303   59.1583   -1.0785 C   0  0  0  0  0  0  0  0  0  0  0  0
    6.0088   59.1275   -1.5766 C   0  0  0  0  0  0  0  0  0  0  0  0
    6.1761   59.3163   -2.9347 C   0  0  0  0  0  0  0  0  0  0  0  0
    5.1474   59.5292   -3.7954 C   0  0  0  0  0  0  0  0  0  0  0  0
    7.9178   62.7066   -7.5567 C   0  0  0  0  0  0  0  0  0  0  0  0
    8.9073   63.6513   -7.3808 C   0  0  0  0  0  0  0  0  0  0  0  0
    9.7247   63.6351   -6.2722 C   0  0  0  0  0  0  0  0  0  0  0  0
   10.7188   64.5829   -6.0937 O   0  0  0  0  0  0  0  0  0  0  0  0
  1  2  2  0
  2  3  1  0
  2  4  1  0
  4  5  2  0
  5  6  1  0
  6  7  1  0
  7  8  1  0
  8  9  1  0
  9 10  2  0
 10 11  1  0
 11 12  2  0
 12 13  1  0
 13 14  2  0
 14 15  1  0
 15 16  2  0
 16 17  1  0
 17 18  2  0
  6 19  2  0
 19 20  1  0
 20 21  2  0
 21 22  1  0
 21  4  1  0
 18  9  1  0
 18 13  1  0
M  END
$$$$
