
     RDKit          3D

 22 24  0  0  0  0  0  0  0  0999 V2000
   10.4013   63.7784   -4.4602 O   0  0  0  0  0  0  0  0  0  0  0  0
   10.2817   63.5991   -5.7006 C   0  0  0  0  0  0  0  0  0  0  0  0
   11.1058   64.3346   -6.5240 O   0  0  0  0  0  0  0  0  0  0  0  0
    9.3031   62.6479   -6.1824 C   0  0  0  0  0  0  0  0  0  0  0  0
    8.4557   61.9892   -5.3504 C   0  0  0  0  0  0  0  0  0  0  0  0
    7.5297   61.0860   -5.8304 C   0  0  0  0  0  0  0  0  0  0  0  0
    6.7141   60.4703   -4.8933 O   0  0  0  0  0  0  0  0  0  0  0  0
    5.6557   59.5861   -5.2971 C   0  0  0  0  0  0  0  0  0  0  0  0
    4.9202   59.2210   -4.0899 C   0  0  0  0  0  0  0  0  0  0  0  0
    5.2727   58.0928   -3.3805 C   0  0  0  0  0  0  0  0  0  0  0  0
    4.6071   57.6978   -2.2355 C   0  0  0  0  0  0  0  0  0  0  0  0
    3.5438   58.4784   -1.7954 C   0  0  0  0  0  0  0  0  0  0  0  0
    3.1639   59.6146   -2.4813 C   0  0  0  0  0  0  0  0  0  0  0  0
    2.1080   60.3917   -2.0436 C   0  0  0  0  0  0  0  0  0  0  0  0
    1.7449   61.5118   -2.7299 C   0  0  0  0  0  0  0  0  0  0  0  0
    2.4214   61.8845   -3.8643 C   0  0  0  0  0  0  0  0  0  0  0  0
    3.4722   61.0894   -4.2787 C   0  0  0  0  0  0  0  0  0  0  0  0
    3.8667   59.9661   -3.6254 C   0  0  0  0  0  0  0  0  0  0  0  0
    7.4489   60.8341   -7.1825 C   0  0  0  0  0  0  0  0  0  0  0  0
    8.3082   61.5015   -8.0301 C   0  0  0  0  0  0  0  0  0  0  0  0
    9.2323   62.4031   -7.5497 C   0  0  0  0  0  0  0  0  0  0  0  0
   10.0959   63.0744   -8.3993 O   0  0  0  0  0  0  0  0  0  0  0  0
  1  2  2  0
  2  3  1  0
  2  4  1  0
  4  5  2  0
  5  6  1  0
  6  7  1  0
  7  8  1  0
  8  9  1  0
  9 10  2  0
 10 11  1  0
 11 12  2  0
 12 13  1  0
 13 14  2  0
 14 15  1  0
 15 16  2  0
 16 17  1  0
 17 18  2  0
  6 19  2  0
 19 20  1  0
 20 21  2  0
 21 22  1  0
 21  4  1  0
 18  9  1  0
 18 13  1  0
M  END
$$$$
