
     RDKit          3D

 22 24  0  0  0  0  0  0  0  0999 V2000
   10.4426   63.2559   -3.9277 O   0  0  0  0  0  0  0  0  0  0  0  0
    9.9833   63.4428   -5.0849 C   0  0  0  0  0  0  0  0  0  0  0  0
   10.4034   64.5723   -5.7527 O   0  0  0  0  0  0  0  0  0  0  0  0
    9.0568   62.4784   -5.6380 C   0  0  0  0  0  0  0  0  0  0  0  0
    8.7479   61.3178   -5.0041 C   0  0  0  0  0  0  0  0  0  0  0  0
    7.8617   60.4114   -5.5489 C   0  0  0  0  0  0  0  0  0  0  0  0
    7.6182   59.2592   -4.8171 O   0  0  0  0  0  0  0  0  0  0  0  0
    6.5327   59.1919   -3.8779 C   0  0  0  0  0  0  0  0  0  0  0  0
    5.2952   59.2426   -4.6511 C   0  0  0  0  0  0  0  0  0  0  0  0
    5.0247   58.2675   -5.5872 C   0  0  0  0  0  0  0  0  0  0  0  0
    3.8724   58.2704   -6.3504 C   0  0  0  0  0  0  0  0  0  0  0  0
    2.9615   59.3027   -6.1549 C   0  0  0  0  0  0  0  0  0  0  0  0
    3.2004   60.2956   -5.2258 C   0  0  0  0  0  0  0  0  0  0  0  0
    2.2948   61.3211   -5.0300 C   0  0  0  0  0  0  0  0  0  0  0  0
    2.5429   62.2938   -4.1081 C   0  0  0  0  0  0  0  0  0  0  0  0
    3.6941   62.2695   -3.3613 C   0  0  0  0  0  0  0  0  0  0  0  0
    4.5812   61.2331   -3.5781 C   0  0  0  0  0  0  0  0  0  0  0  0
    4.3735   60.2446   -4.4857 C   0  0  0  0  0  0  0  0  0  0  0  0
    7.2670   60.6735   -6.7637 C   0  0  0  0  0  0  0  0  0  0  0  0
    7.5787   61.8513   -7.4101 C   0  0  0  0  0  0  0  0  0  0  0  0
    8.4636   62.7555   -6.8651 C   0  0  0  0  0  0  0  0  0  0  0  0
    8.7777   63.9389   -7.5126 O   0  0  0  0  0  0  0  0  0  0  0  0
  1  2  2  0
  2  3  1  0
  2  4  1  0
  4  5  2  0
  5  6  1  0
  6  7  1  0
  7  8  1  0
  8  9  1  0
  9 10  2  0
 10 11  1  0
 11 12  2  0
 12 13  1  0
 13 14  2  0
 14 15  1  0
 15 16  2  0
 16 17  1  0
 17 18  2  0
  6 19  2  0
 19 20  1  0
 20 21  2  0
 21 22  1  0
 21  4  1  0
 18  9  1  0
 18 13  1  0
M  END
$$$$
